# generated using pymatgen
data_ID_0
_symmetry_space_group_name_H-M   Pm-3m
_cell_length_a   2.61209181
_cell_length_b   2.61209181
_cell_length_c   2.61209181
_cell_angle_alpha   90.00000000
_cell_angle_beta   90.00000000
_cell_angle_gamma   90.00000000
_symmetry_Int_Tables_number   221
_chemical_formula_structural   Si
_cell_volume   17.82236419
_cell_formula_units_Z   1
loop_
 _symmetry_equiv_pos_site_id
 _symmetry_equiv_pos_as_xyz
  1  'x, y, z'
  2  '-x, -y, -z'
  3  '-y, x, z'
  4  'y, -x, -z'
  5  '-x, -y, z'
  6  'x, y, -z'
  7  'y, -x, z'
  8  '-y, x, -z'
  9  'x, -y, -z'
  10  '-x, y, z'
  11  '-y, -x, -z'
  12  'y, x, z'
  13  '-x, y, -z'
  14  'x, -y, z'
  15  'y, x, -z'
  16  '-y, -x, z'
  17  'z, x, y'
  18  '-z, -x, -y'
  19  'z, -y, x'
  20  '-z, y, -x'
  21  'z, -x, -y'
  22  '-z, x, y'
  23  'z, y, -x'
  24  '-z, -y, x'
  25  '-z, x, -y'
  26  'z, -x, y'
  27  '-z, -y, -x'
  28  'z, y, x'
  29  '-z, -x, y'
  30  'z, x, -y'
  31  '-z, y, x'
  32  'z, -y, -x'
  33  'y, z, x'
  34  '-y, -z, -x'
  35  'x, z, -y'
  36  '-x, -z, y'
  37  '-y, z, -x'
  38  'y, -z, x'
  39  '-x, z, y'
  40  'x, -z, -y'
  41  '-y, -z, x'
  42  'y, z, -x'
  43  '-x, -z, -y'
  44  'x, z, y'
  45  'y, -z, -x'
  46  '-y, z, x'
  47  'x, -z, y'
  48  '-x, z, -y'
loop_
 _atom_site_type_symbol
 _atom_site_label
 _atom_site_symmetry_multiplicity
 _atom_site_fract_x
 _atom_site_fract_y
 _atom_site_fract_z
 _atom_site_occupancy
  Si  Si0  1  0.500000  0.500000  0.500000  1
# generated using pymatgen
data_ID_1
_symmetry_space_group_name_H-M   Pm-3
_cell_length_a   8.43303490
_cell_length_b   8.43303490
_cell_length_c   8.43303490
_cell_angle_alpha   90.00000000
_cell_angle_beta   90.00000000
_cell_angle_gamma   90.00000000
_symmetry_Int_Tables_number   200
_chemical_formula_structural   Si
_cell_volume   599.72436446
_cell_formula_units_Z   16
loop_
 _symmetry_equiv_pos_site_id
 _symmetry_equiv_pos_as_xyz
  1  'x, y, z'
  2  '-x, -y, -z'
  3  '-x, -y, z'
  4  'x, y, -z'
  5  'x, -y, -z'
  6  '-x, y, z'
  7  '-x, y, -z'
  8  'x, -y, z'
  9  'z, x, y'
  10  '-z, -x, -y'
  11  'z, -x, -y'
  12  '-z, x, y'
  13  '-z, x, -y'
  14  'z, -x, y'
  15  '-z, -x, y'
  16  'z, x, -y'
  17  'y, z, x'
  18  '-y, -z, -x'
  19  '-y, z, -x'
  20  'y, -z, x'
  21  '-y, -z, x'
  22  'y, z, -x'
  23  'y, -z, -x'
  24  '-y, z, x'
loop_
 _atom_site_type_symbol
 _atom_site_label
 _atom_site_symmetry_multiplicity
 _atom_site_fract_x
 _atom_site_fract_y
 _atom_site_fract_z
 _atom_site_occupancy
  Si  Si0  6  0.000000  0.294477  0.500000  1
  Si  Si1  6  0.201390  0.500000  0.500000  1
  Si  Si2  3  0.000000  0.000000  0.500000  1
  Si  Si3  1  0.500000  0.500000  0.500000  1
# generated using pymatgen
data_ID_2
_symmetry_space_group_name_H-M   P2/m
_cell_length_a   9.66964193
_cell_length_b   7.58766697
_cell_length_c   9.67596724
_cell_angle_alpha   90.00000000
_cell_angle_beta   119.96197124
_cell_angle_gamma   90.00000000
_symmetry_Int_Tables_number   10
_chemical_formula_structural   Si
_cell_volume   615.04935821
_cell_formula_units_Z   16
loop_
 _symmetry_equiv_pos_site_id
 _symmetry_equiv_pos_as_xyz
  1  'x, y, z'
  2  '-x, -y, -z'
  3  '-x, y, -z'
  4  'x, -y, z'
loop_
 _atom_site_type_symbol
 _atom_site_label
 _atom_site_symmetry_multiplicity
 _atom_site_fract_x
 _atom_site_fract_y
 _atom_site_fract_z
 _atom_site_occupancy
  Si  Si0  2  0.000000  0.336865  0.000000  1
  Si  Si1  2  0.167510  0.000000  0.832490  1
  Si  Si2  2  0.167510  0.000000  0.335019  1
  Si  Si3  2  0.333334  0.000000  0.666667  1
  Si  Si4  2  0.333334  0.500000  0.666667  1
  Si  Si5  2  0.335019  0.000000  0.167510  1
  Si  Si6  1  0.000000  0.000000  0.000000  1
  Si  Si7  1  0.000000  0.000000  0.500000  1
  Si  Si8  1  0.500000  0.000000  0.000000  1
  Si  Si9  1  0.500000  0.000000  0.500000  1
# generated using pymatgen
data_ID_3
_symmetry_space_group_name_H-M   Pm-3m
_cell_length_a   5.10926742
_cell_length_b   5.10926742
_cell_length_c   5.10926742
_cell_angle_alpha   90.00000000
_cell_angle_beta   90.00000000
_cell_angle_gamma   90.00000000
_symmetry_Int_Tables_number   221
_chemical_formula_structural   Si
_cell_volume   133.37545159
_cell_formula_units_Z   4
loop_
 _symmetry_equiv_pos_site_id
 _symmetry_equiv_pos_as_xyz
  1  'x, y, z'
  2  '-x, -y, -z'
  3  '-y, x, z'
  4  'y, -x, -z'
  5  '-x, -y, z'
  6  'x, y, -z'
  7  'y, -x, z'
  8  '-y, x, -z'
  9  'x, -y, -z'
  10  '-x, y, z'
  11  '-y, -x, -z'
  12  'y, x, z'
  13  '-x, y, -z'
  14  'x, -y, z'
  15  'y, x, -z'
  16  '-y, -x, z'
  17  'z, x, y'
  18  '-z, -x, -y'
  19  'z, -y, x'
  20  '-z, y, -x'
  21  'z, -x, -y'
  22  '-z, x, y'
  23  'z, y, -x'
  24  '-z, -y, x'
  25  '-z, x, -y'
  26  'z, -x, y'
  27  '-z, -y, -x'
  28  'z, y, x'
  29  '-z, -x, y'
  30  'z, x, -y'
  31  '-z, y, x'
  32  'z, -y, -x'
  33  'y, z, x'
  34  '-y, -z, -x'
  35  'x, z, -y'
  36  '-x, -z, y'
  37  '-y, z, -x'
  38  'y, -z, x'
  39  '-x, z, y'
  40  'x, -z, -y'
  41  '-y, -z, x'
  42  'y, z, -x'
  43  '-x, -z, -y'
  44  'x, z, y'
  45  'y, -z, -x'
  46  '-y, z, x'
  47  'x, -z, y'
  48  '-x, z, -y'
loop_
 _atom_site_type_symbol
 _atom_site_label
 _atom_site_symmetry_multiplicity
 _atom_site_fract_x
 _atom_site_fract_y
 _atom_site_fract_z
 _atom_site_occupancy
  Si  Si0  3  0.000000  0.500000  0.500000  1
  Si  Si1  1  0.500000  0.500000  0.500000  1
# generated using pymatgen
data_ID_4
_symmetry_space_group_name_H-M   P-1
_cell_length_a   5.57893116
_cell_length_b   6.09229644
_cell_length_c   9.37006087
_cell_angle_alpha   71.11551663
_cell_angle_beta   75.05963287
_cell_angle_gamma   80.89975715
_symmetry_Int_Tables_number   2
_chemical_formula_structural   Si
_cell_volume   290.17115178
_cell_formula_units_Z   16
loop_
 _symmetry_equiv_pos_site_id
 _symmetry_equiv_pos_as_xyz
  1  'x, y, z'
  2  '-x, -y, -z'
loop_
 _atom_site_type_symbol
 _atom_site_label
 _atom_site_symmetry_multiplicity
 _atom_site_fract_x
 _atom_site_fract_y
 _atom_site_fract_z
 _atom_site_occupancy
  Si  Si0  2  0.113000  0.883147  0.656122  1
  Si  Si1  2  0.138041  0.768588  0.067514  1
  Si  Si2  2  0.187326  0.443561  0.302730  1
  Si  Si3  2  0.236716  0.283397  0.597310  1
  Si  Si4  2  0.301503  0.276264  0.879043  1
  Si  Si5  2  0.312458  0.741492  0.435692  1
  Si  Si6  2  0.324012  0.041824  0.162389  1
  Si  Si7  2  0.363159  0.679432  0.833375  1
# generated using pymatgen
data_ID_5
_symmetry_space_group_name_H-M   P4_332
_cell_length_a   7.88847788
_cell_length_b   7.88847788
_cell_length_c   7.88847788
_cell_angle_alpha   90.00000000
_cell_angle_beta   90.00000000
_cell_angle_gamma   90.00000000
_symmetry_Int_Tables_number   212
_chemical_formula_structural   Si
_cell_volume   490.88485811
_cell_formula_units_Z   16
loop_
 _symmetry_equiv_pos_site_id
 _symmetry_equiv_pos_as_xyz
  1  'x, y, z'
  2  '-y+3/4, x+1/4, z+3/4'
  3  '-x+1/2, -y, z+1/2'
  4  'y+3/4, -x+3/4, z+1/4'
  5  'x+1/2, -y+1/2, -z'
  6  '-y+1/4, -x+1/4, -z+1/4'
  7  '-x, y+1/2, -z+1/2'
  8  'y+1/4, x+3/4, -z+3/4'
  9  'z, x, y'
  10  'z+3/4, -y+3/4, x+1/4'
  11  'z+1/2, -x+1/2, -y'
  12  'z+1/4, y+3/4, -x+3/4'
  13  '-z, x+1/2, -y+1/2'
  14  '-z+1/4, -y+1/4, -x+1/4'
  15  '-z+1/2, -x, y+1/2'
  16  '-z+3/4, y+1/4, x+3/4'
  17  'y, z, x'
  18  'x+1/4, z+3/4, -y+3/4'
  19  '-y, z+1/2, -x+1/2'
  20  '-x+3/4, z+1/4, y+3/4'
  21  '-y+1/2, -z, x+1/2'
  22  '-x+1/4, -z+1/4, -y+1/4'
  23  'y+1/2, -z+1/2, -x'
  24  'x+3/4, -z+3/4, y+1/4'
loop_
 _atom_site_type_symbol
 _atom_site_label
 _atom_site_symmetry_multiplicity
 _atom_site_fract_x
 _atom_site_fract_y
 _atom_site_fract_z
 _atom_site_occupancy
  Si  Si0  12  0.124948  0.125052  0.625000  1
  Si  Si1  4  0.125000  0.875000  0.375000  1
# generated using pymatgen
data_ID_6
_symmetry_space_group_name_H-M   P-43m
_cell_length_a   7.16473888
_cell_length_b   7.16473888
_cell_length_c   7.16473888
_cell_angle_alpha   90.00000000
_cell_angle_beta   90.00000000
_cell_angle_gamma   90.00000000
_symmetry_Int_Tables_number   215
_chemical_formula_structural   Si
_cell_volume   367.79100348
_cell_formula_units_Z   16
loop_
 _symmetry_equiv_pos_site_id
 _symmetry_equiv_pos_as_xyz
  1  'x, y, z'
  2  'y, -x, -z'
  3  '-x, -y, z'
  4  '-y, x, -z'
  5  'x, -y, -z'
  6  'y, x, z'
  7  '-x, y, -z'
  8  '-y, -x, z'
  9  'z, x, y'
  10  '-z, y, -x'
  11  'z, -x, -y'
  12  '-z, -y, x'
  13  '-z, x, -y'
  14  'z, y, x'
  15  '-z, -x, y'
  16  'z, -y, -x'
  17  'y, z, x'
  18  '-x, -z, y'
  19  '-y, z, -x'
  20  'x, -z, -y'
  21  '-y, -z, x'
  22  'x, z, y'
  23  'y, -z, -x'
  24  '-x, z, -y'
loop_
 _atom_site_type_symbol
 _atom_site_label
 _atom_site_symmetry_multiplicity
 _atom_site_fract_x
 _atom_site_fract_y
 _atom_site_fract_z
 _atom_site_occupancy
  Si  Si0  12  0.000000  0.251647  0.500000  1
  Si  Si1  4  0.362101  0.362101  0.362101  1
# generated using pymatgen
data_ID_7
_symmetry_space_group_name_H-M   Cmmm
_cell_length_a   2.83167576
_cell_length_b   4.90723621
_cell_length_c   2.59910341
_cell_angle_alpha   90.00000000
_cell_angle_beta   90.00000000
_cell_angle_gamma   90.00000000
_symmetry_Int_Tables_number   65
_chemical_formula_structural   Si
_cell_volume   36.11636592
_cell_formula_units_Z   2
loop_
 _symmetry_equiv_pos_site_id
 _symmetry_equiv_pos_as_xyz
  1  'x, y, z'
  2  '-x, -y, -z'
  3  '-x, -y, z'
  4  'x, y, -z'
  5  'x, -y, -z'
  6  '-x, y, z'
  7  '-x, y, -z'
  8  'x, -y, z'
  9  'x+1/2, y+1/2, z'
  10  '-x+1/2, -y+1/2, -z'
  11  '-x+1/2, -y+1/2, z'
  12  'x+1/2, y+1/2, -z'
  13  'x+1/2, -y+1/2, -z'
  14  '-x+1/2, y+1/2, z'
  15  '-x+1/2, y+1/2, -z'
  16  'x+1/2, -y+1/2, z'
loop_
 _atom_site_type_symbol
 _atom_site_label
 _atom_site_symmetry_multiplicity
 _atom_site_fract_x
 _atom_site_fract_y
 _atom_site_fract_z
 _atom_site_occupancy
  Si  Si0  2  0.000000  0.500000  0.000000  1
# generated using pymatgen
data_ID_8
_symmetry_space_group_name_H-M   Im-3m
_cell_length_a   3.24480116
_cell_length_b   3.24480116
_cell_length_c   3.24480116
_cell_angle_alpha   90.00000000
_cell_angle_beta   90.00000000
_cell_angle_gamma   90.00000000
_symmetry_Int_Tables_number   229
_chemical_formula_structural   Si
_cell_volume   34.16365009
_cell_formula_units_Z   2
loop_
 _symmetry_equiv_pos_site_id
 _symmetry_equiv_pos_as_xyz
  1  'x, y, z'
  2  '-x, -y, -z'
  3  '-y, x, z'
  4  'y, -x, -z'
  5  '-x, -y, z'
  6  'x, y, -z'
  7  'y, -x, z'
  8  '-y, x, -z'
  9  'x, -y, -z'
  10  '-x, y, z'
  11  '-y, -x, -z'
  12  'y, x, z'
  13  '-x, y, -z'
  14  'x, -y, z'
  15  'y, x, -z'
  16  '-y, -x, z'
  17  'z, x, y'
  18  '-z, -x, -y'
  19  'z, -y, x'
  20  '-z, y, -x'
  21  'z, -x, -y'
  22  '-z, x, y'
  23  'z, y, -x'
  24  '-z, -y, x'
  25  '-z, x, -y'
  26  'z, -x, y'
  27  '-z, -y, -x'
  28  'z, y, x'
  29  '-z, -x, y'
  30  'z, x, -y'
  31  '-z, y, x'
  32  'z, -y, -x'
  33  'y, z, x'
  34  '-y, -z, -x'
  35  'x, z, -y'
  36  '-x, -z, y'
  37  '-y, z, -x'
  38  'y, -z, x'
  39  '-x, z, y'
  40  'x, -z, -y'
  41  '-y, -z, x'
  42  'y, z, -x'
  43  '-x, -z, -y'
  44  'x, z, y'
  45  'y, -z, -x'
  46  '-y, z, x'
  47  'x, -z, y'
  48  '-x, z, -y'
  49  'x+1/2, y+1/2, z+1/2'
  50  '-x+1/2, -y+1/2, -z+1/2'
  51  '-y+1/2, x+1/2, z+1/2'
  52  'y+1/2, -x+1/2, -z+1/2'
  53  '-x+1/2, -y+1/2, z+1/2'
  54  'x+1/2, y+1/2, -z+1/2'
  55  'y+1/2, -x+1/2, z+1/2'
  56  '-y+1/2, x+1/2, -z+1/2'
  57  'x+1/2, -y+1/2, -z+1/2'
  58  '-x+1/2, y+1/2, z+1/2'
  59  '-y+1/2, -x+1/2, -z+1/2'
  60  'y+1/2, x+1/2, z+1/2'
  61  '-x+1/2, y+1/2, -z+1/2'
  62  'x+1/2, -y+1/2, z+1/2'
  63  'y+1/2, x+1/2, -z+1/2'
  64  '-y+1/2, -x+1/2, z+1/2'
  65  'z+1/2, x+1/2, y+1/2'
  66  '-z+1/2, -x+1/2, -y+1/2'
  67  'z+1/2, -y+1/2, x+1/2'
  68  '-z+1/2, y+1/2, -x+1/2'
  69  'z+1/2, -x+1/2, -y+1/2'
  70  '-z+1/2, x+1/2, y+1/2'
  71  'z+1/2, y+1/2, -x+1/2'
  72  '-z+1/2, -y+1/2, x+1/2'
  73  '-z+1/2, x+1/2, -y+1/2'
  74  'z+1/2, -x+1/2, y+1/2'
  75  '-z+1/2, -y+1/2, -x+1/2'
  76  'z+1/2, y+1/2, x+1/2'
  77  '-z+1/2, -x+1/2, y+1/2'
  78  'z+1/2, x+1/2, -y+1/2'
  79  '-z+1/2, y+1/2, x+1/2'
  80  'z+1/2, -y+1/2, -x+1/2'
  81  'y+1/2, z+1/2, x+1/2'
  82  '-y+1/2, -z+1/2, -x+1/2'
  83  'x+1/2, z+1/2, -y+1/2'
  84  '-x+1/2, -z+1/2, y+1/2'
  85  '-y+1/2, z+1/2, -x+1/2'
  86  'y+1/2, -z+1/2, x+1/2'
  87  '-x+1/2, z+1/2, y+1/2'
  88  'x+1/2, -z+1/2, -y+1/2'
  89  '-y+1/2, -z+1/2, x+1/2'
  90  'y+1/2, z+1/2, -x+1/2'
  91  '-x+1/2, -z+1/2, -y+1/2'
  92  'x+1/2, z+1/2, y+1/2'
  93  'y+1/2, -z+1/2, -x+1/2'
  94  '-y+1/2, z+1/2, x+1/2'
  95  'x+1/2, -z+1/2, y+1/2'
  96  '-x+1/2, z+1/2, -y+1/2'
loop_
 _atom_site_type_symbol
 _atom_site_label
 _atom_site_symmetry_multiplicity
 _atom_site_fract_x
 _atom_site_fract_y
 _atom_site_fract_z
 _atom_site_occupancy
  Si  Si0  2  0.000000  0.000000  0.000000  1
# generated using pymatgen
data_ID_9
_symmetry_space_group_name_H-M   P6_322
_cell_length_a   8.19129877
_cell_length_b   8.19129877
_cell_length_c   5.14339033
_cell_angle_alpha   90.00000000
_cell_angle_beta   90.00000000
_cell_angle_gamma   120.00000000
_symmetry_Int_Tables_number   182
_chemical_formula_structural   Si
_cell_volume   298.87228867
_cell_formula_units_Z   16
loop_
 _symmetry_equiv_pos_site_id
 _symmetry_equiv_pos_as_xyz
  1  'x, y, z'
  2  'x-y, x, z+1/2'
  3  '-y, x-y, z'
  4  '-x, -y, z+1/2'
  5  '-x+y, -x, z'
  6  'y, -x+y, z+1/2'
  7  '-y, -x, -z+1/2'
  8  '-x, -x+y, -z'
  9  '-x+y, y, -z+1/2'
  10  'y, x, -z'
  11  'x, x-y, -z+1/2'
  12  'x-y, -y, -z'
loop_
 _atom_site_type_symbol
 _atom_site_label
 _atom_site_symmetry_multiplicity
 _atom_site_fract_x
 _atom_site_fract_y
 _atom_site_fract_z
 _atom_site_occupancy
  Si  Si0  6  0.000000  0.309616  0.500000  1
  Si  Si1  6  0.000000  0.371126  0.000000  1
  Si  Si2  2  0.000000  0.000000  0.000000  1
  Si  Si3  2  0.333333  0.666667  0.250000  1
# generated using pymatgen
data_ID_10
_symmetry_space_group_name_H-M   P1
_cell_length_a   5.62395845
_cell_length_b   7.18971705
_cell_length_c   8.32455455
_cell_angle_alpha   78.29618622
_cell_angle_beta   88.16020056
_cell_angle_gamma   89.46095548
_symmetry_Int_Tables_number   1
_chemical_formula_structural   Si
_cell_volume   329.43110512
_cell_formula_units_Z   16
loop_
 _symmetry_equiv_pos_site_id
 _symmetry_equiv_pos_as_xyz
  1  'x, y, z'
loop_
 _atom_site_type_symbol
 _atom_site_label
 _atom_site_symmetry_multiplicity
 _atom_site_fract_x
 _atom_site_fract_y
 _atom_site_fract_z
 _atom_site_occupancy
  Si  Si0  1  0.104734  0.601283  0.969666  1
  Si  Si1  1  0.105669  0.889132  0.523539  1
  Si  Si2  1  0.199725  0.927398  0.798545  1
  Si  Si3  1  0.259521  0.541541  0.550232  1
  Si  Si4  1  0.287973  0.100165  0.311419  1
  Si  Si5  1  0.499398  0.306793  0.435921  1
  Si  Si6  1  0.537786  0.579162  0.977826  1
  Si  Si7  1  0.561434  0.917554  0.958482  1
  Si  Si8  1  0.596207  0.667197  0.660792  1
  Si  Si9  1  0.644103  0.971997  0.223143  1
  Si  Si10  1  0.686780  0.024240  0.609362  1
  Si  Si11  1  0.767183  0.466584  0.216163  1
  Si  Si12  1  0.811213  0.699153  0.390703  1
  Si  Si13  1  0.904645  0.134033  0.855004  1
  Si  Si14  1  0.949432  0.465622  0.756943  1
  Si  Si15  1  0.961996  0.196169  0.137811  1
# generated using pymatgen
data_ID_11
_symmetry_space_group_name_H-M   P1
_cell_length_a   6.93082514
_cell_length_b   7.08963768
_cell_length_c   7.25115354
_cell_angle_alpha   114.49883051
_cell_angle_beta   97.43611783
_cell_angle_gamma   102.29724565
_symmetry_Int_Tables_number   1
_chemical_formula_structural   Si
_cell_volume   307.13671604
_cell_formula_units_Z   16
loop_
 _symmetry_equiv_pos_site_id
 _symmetry_equiv_pos_as_xyz
  1  'x, y, z'
loop_
 _atom_site_type_symbol
 _atom_site_label
 _atom_site_symmetry_multiplicity
 _atom_site_fract_x
 _atom_site_fract_y
 _atom_site_fract_z
 _atom_site_occupancy
  Si  Si0  1  0.147960  0.492846  0.992598  1
  Si  Si1  1  0.172363  0.918884  0.784977  1
  Si  Si2  1  0.244196  0.849322  0.459800  1
  Si  Si3  1  0.287077  0.420444  0.470462  1
  Si  Si4  1  0.422808  0.603214  0.842328  1
  Si  Si5  1  0.442954  0.129358  0.422736  1
  Si  Si6  1  0.460710  0.604316  0.293791  1
  Si  Si7  1  0.463544  0.031117  0.064650  1
  Si  Si8  1  0.647150  0.379184  0.792243  1
  Si  Si9  1  0.698161  0.388479  0.144090  1
  Si  Si10  1  0.754044  0.980494  0.471328  1
  Si  Si11  1  0.792167  0.914699  0.008976  1
  Si  Si12  1  0.916841  0.291705  0.386519  1
  Si  Si13  1  0.930917  0.750683  0.227442  1
  Si  Si14  1  0.935001  0.120265  0.832826  1
  Si  Si15  1  0.950621  0.579864  0.742693  1
# generated using pymatgen
data_ID_12
_symmetry_space_group_name_H-M   P1
_cell_length_a   5.60622974
_cell_length_b   5.73712784
_cell_length_c   9.28482142
_cell_angle_alpha   87.33927335
_cell_angle_beta   78.57015650
_cell_angle_gamma   82.71253713
_symmetry_Int_Tables_number   1
_chemical_formula_structural   Si
_cell_volume   290.27728734
_cell_formula_units_Z   16
loop_
 _symmetry_equiv_pos_site_id
 _symmetry_equiv_pos_as_xyz
  1  'x, y, z'
loop_
 _atom_site_type_symbol
 _atom_site_label
 _atom_site_symmetry_multiplicity
 _atom_site_fract_x
 _atom_site_fract_y
 _atom_site_fract_z
 _atom_site_occupancy
  Si  Si0  1  0.133041  0.191612  0.658400  1
  Si  Si1  1  0.231145  0.808231  0.777704  1
  Si  Si2  1  0.239050  0.376048  0.035590  1
  Si  Si3  1  0.256377  0.491524  0.421218  1
  Si  Si4  1  0.315512  0.133661  0.250378  1
  Si  Si5  1  0.391101  0.718440  0.174929  1
  Si  Si6  1  0.510699  0.598966  0.580810  1
  Si  Si7  1  0.571044  0.765058  0.905301  1
  Si  Si8  1  0.576540  0.207366  0.656471  1
  Si  Si9  1  0.636888  0.183887  0.905702  1
  Si  Si10  1  0.736353  0.227237  0.237800  1
  Si  Si11  1  0.828256  0.640947  0.187422  1
  Si  Si12  1  0.870772  0.704003  0.428413  1
  Si  Si13  1  0.911202  0.092168  0.449178  1
  Si  Si14  1  0.962716  0.490376  0.849281  1
  Si  Si15  1  0.990476  0.985280  0.032574  1
# generated using pymatgen
data_ID_13
_symmetry_space_group_name_H-M   P1
_cell_length_a   6.18123843
_cell_length_b   6.99314735
_cell_length_c   8.15943328
_cell_angle_alpha   99.21303134
_cell_angle_beta   98.33254942
_cell_angle_gamma   90.70408679
_symmetry_Int_Tables_number   1
_chemical_formula_structural   Si
_cell_volume   344.24956478
_cell_formula_units_Z   16
loop_
 _symmetry_equiv_pos_site_id
 _symmetry_equiv_pos_as_xyz
  1  'x, y, z'
loop_
 _atom_site_type_symbol
 _atom_site_label
 _atom_site_symmetry_multiplicity
 _atom_site_fract_x
 _atom_site_fract_y
 _atom_site_fract_z
 _atom_site_occupancy
  Si  Si0  1  0.024182  0.044480  0.205787  1
  Si  Si1  1  0.034079  0.591496  0.432843  1
  Si  Si2  1  0.066670  0.940543  0.468743  1
  Si  Si3  1  0.159078  0.176517  0.726960  1
  Si  Si4  1  0.172552  0.393120  0.209353  1
  Si  Si5  1  0.197849  0.832998  0.019221  1
  Si  Si6  1  0.228057  0.508606  0.675576  1
  Si  Si7  1  0.420110  0.981578  0.861404  1
  Si  Si8  1  0.430007  0.673041  0.219549  1
  Si  Si9  1  0.451256  0.933007  0.463772  1
  Si  Si10  1  0.499318  0.214561  0.311721  1
  Si  Si11  1  0.563786  0.704591  0.694755  1
  Si  Si12  1  0.668947  0.521322  0.437829  1
  Si  Si13  1  0.681314  0.149961  0.071143  1
  Si  Si14  1  0.933591  0.630627  0.830361  1
  Si  Si15  1  0.935793  0.334086  0.934624  1
# generated using pymatgen
data_ID_14
_symmetry_space_group_name_H-M   P1
_cell_length_a   6.23729366
_cell_length_b   6.46932221
_cell_length_c   8.20611126
_cell_angle_alpha   87.39801063
_cell_angle_beta   88.55840482
_cell_angle_gamma   76.58578100
_symmetry_Int_Tables_number   1
_chemical_formula_structural   Si
_cell_volume   321.72312873
_cell_formula_units_Z   16
loop_
 _symmetry_equiv_pos_site_id
 _symmetry_equiv_pos_as_xyz
  1  'x, y, z'
loop_
 _atom_site_type_symbol
 _atom_site_label
 _atom_site_symmetry_multiplicity
 _atom_site_fract_x
 _atom_site_fract_y
 _atom_site_fract_z
 _atom_site_occupancy
  Si  Si0  1  0.000751  0.851740  0.663864  1
  Si  Si1  1  0.005164  0.854880  0.239914  1
  Si  Si2  1  0.323606  0.381110  0.192723  1
  Si  Si3  1  0.325685  0.196079  0.732210  1
  Si  Si4  1  0.392646  0.824546  0.698061  1
  Si  Si5  1  0.399382  0.764425  0.183712  1
  Si  Si6  1  0.457102  0.330394  0.472202  1
  Si  Si7  1  0.465199  0.101552  0.009625  1
  Si  Si8  1  0.561776  0.664423  0.455638  1
  Si  Si9  1  0.754800  0.678705  0.820950  1
  Si  Si10  1  0.784439  0.650564  0.099947  1
  Si  Si11  1  0.842716  0.160094  0.462860  1
  Si  Si12  1  0.848262  0.088567  0.958644  1
  Si  Si13  1  0.937679  0.323028  0.731942  1
  Si  Si14  1  0.967303  0.302439  0.183944  1
  Si  Si15  1  0.981789  0.582002  0.463951  1
# generated using pymatgen
data_ID_15
_symmetry_space_group_name_H-M   C2/m
_cell_length_a   3.61332978
_cell_length_b   3.61328145
_cell_length_c   3.83204896
_cell_angle_alpha   90.00000000
_cell_angle_beta   110.30692859
_cell_angle_gamma   90.00000000
_symmetry_Int_Tables_number   12
_chemical_formula_structural   Si
_cell_volume   46.92155792
_cell_formula_units_Z   2
loop_
 _symmetry_equiv_pos_site_id
 _symmetry_equiv_pos_as_xyz
  1  'x, y, z'
  2  '-x, -y, -z'
  3  '-x, y, -z'
  4  'x, -y, z'
  5  'x+1/2, y+1/2, z'
  6  '-x+1/2, -y+1/2, -z'
  7  '-x+1/2, y+1/2, -z'
  8  'x+1/2, -y+1/2, z'
loop_
 _atom_site_type_symbol
 _atom_site_label
 _atom_site_symmetry_multiplicity
 _atom_site_fract_x
 _atom_site_fract_y
 _atom_site_fract_z
 _atom_site_occupancy
  Si  Si0  2  0.000000  0.000000  0.500000  1
# generated using pymatgen
data_ID_16
_symmetry_space_group_name_H-M   P-1
_cell_length_a   5.15812828
_cell_length_b   5.68408640
_cell_length_c   10.49326555
_cell_angle_alpha   100.67920687
_cell_angle_beta   93.43207748
_cell_angle_gamma   104.11682068
_symmetry_Int_Tables_number   2
_chemical_formula_structural   Si
_cell_volume   291.40884850
_cell_formula_units_Z   16
loop_
 _symmetry_equiv_pos_site_id
 _symmetry_equiv_pos_as_xyz
  1  'x, y, z'
  2  '-x, -y, -z'
loop_
 _atom_site_type_symbol
 _atom_site_label
 _atom_site_symmetry_multiplicity
 _atom_site_fract_x
 _atom_site_fract_y
 _atom_site_fract_z
 _atom_site_occupancy
  Si  Si0  2  0.022231  0.949919  0.175115  1
  Si  Si1  2  0.062410  0.542086  0.194185  1
  Si  Si2  2  0.064035  0.669961  0.446618  1
  Si  Si3  2  0.246819  0.830818  0.949907  1
  Si  Si4  2  0.250221  0.997389  0.636481  1
  Si  Si5  2  0.474739  0.204142  0.238651  1
  Si  Si6  2  0.484276  0.419354  0.601224  1
  Si  Si7  2  0.497336  0.631517  0.105171  1
# generated using pymatgen
data_ID_17
_symmetry_space_group_name_H-M   P1
_cell_length_a   5.57519129
_cell_length_b   6.44959123
_cell_length_c   8.60182731
_cell_angle_alpha   95.52695951
_cell_angle_beta   103.58914079
_cell_angle_gamma   103.93358303
_symmetry_Int_Tables_number   1
_chemical_formula_structural   Si
_cell_volume   287.93950734
_cell_formula_units_Z   16
loop_
 _symmetry_equiv_pos_site_id
 _symmetry_equiv_pos_as_xyz
  1  'x, y, z'
loop_
 _atom_site_type_symbol
 _atom_site_label
 _atom_site_symmetry_multiplicity
 _atom_site_fract_x
 _atom_site_fract_y
 _atom_site_fract_z
 _atom_site_occupancy
  Si  Si0  1  0.328302  0.568135  0.735631  1
  Si  Si1  1  0.331016  0.317443  0.394327  1
  Si  Si2  1  0.342224  0.932140  0.712612  1
  Si  Si3  1  0.368073  0.647369  0.028145  1
  Si  Si4  1  0.382435  0.317597  0.125277  1
  Si  Si5  1  0.383941  0.961582  0.440413  1
  Si  Si6  1  0.604983  0.130585  0.965612  1
  Si  Si7  1  0.651691  0.939787  0.241377  1
  Si  Si8  1  0.652178  0.668275  0.525030  1
  Si  Si9  1  0.695277  0.432864  0.828257  1
  Si  Si10  1  0.890107  0.337131  0.342275  1
  Si  Si11  1  0.905520  0.337144  0.624941  1
  Si  Si12  1  0.942135  0.997465  0.701480  1
  Si  Si13  1  0.959383  0.726906  0.316339  1
  Si  Si14  1  0.974690  0.699629  0.039952  1
  Si  Si15  1  0.996240  0.046068  0.981392  1
# generated using pymatgen
data_ID_18
_symmetry_space_group_name_H-M   P6mm
_cell_length_a   8.03163432
_cell_length_b   8.03163432
_cell_length_c   7.47377427
_cell_angle_alpha   90.00000000
_cell_angle_beta   90.00000000
_cell_angle_gamma   120.00000000
_symmetry_Int_Tables_number   183
_chemical_formula_structural   Si
_cell_volume   417.52113250
_cell_formula_units_Z   16
loop_
 _symmetry_equiv_pos_site_id
 _symmetry_equiv_pos_as_xyz
  1  'x, y, z'
  2  'x-y, x, z'
  3  '-y, x-y, z'
  4  '-x, -y, z'
  5  '-x+y, -x, z'
  6  'y, -x+y, z'
  7  'y, x, z'
  8  'x, x-y, z'
  9  'x-y, -y, z'
  10  '-y, -x, z'
  11  '-x, -x+y, z'
  12  '-x+y, y, z'
loop_
 _atom_site_type_symbol
 _atom_site_label
 _atom_site_symmetry_multiplicity
 _atom_site_fract_x
 _atom_site_fract_y
 _atom_site_fract_z
 _atom_site_occupancy
  Si  Si0  6  0.177593  0.355187  0.704817  1
  Si  Si1  6  0.180044  0.360088  0.026313  1
  Si  Si2  2  0.333333  0.666667  0.578890  1
  Si  Si3  1  0.000000  0.000000  0.196952  1
  Si  Si4  1  0.000000  0.000000  0.513866  1
# generated using pymatgen
data_ID_19
_symmetry_space_group_name_H-M   P6/mmm
_cell_length_a   7.36777916
_cell_length_b   7.36777916
_cell_length_c   8.24355428
_cell_angle_alpha   90.00000000
_cell_angle_beta   90.00000000
_cell_angle_gamma   120.00000000
_symmetry_Int_Tables_number   191
_chemical_formula_structural   Si
_cell_volume   387.54160524
_cell_formula_units_Z   16
loop_
 _symmetry_equiv_pos_site_id
 _symmetry_equiv_pos_as_xyz
  1  'x, y, z'
  2  '-x, -y, -z'
  3  'x-y, x, z'
  4  '-x+y, -x, -z'
  5  '-y, x-y, z'
  6  'y, -x+y, -z'
  7  '-x, -y, z'
  8  'x, y, -z'
  9  '-x+y, -x, z'
  10  'x-y, x, -z'
  11  'y, -x+y, z'
  12  '-y, x-y, -z'
  13  '-y, -x, -z'
  14  'y, x, z'
  15  '-x, -x+y, -z'
  16  'x, x-y, z'
  17  '-x+y, y, -z'
  18  'x-y, -y, z'
  19  'y, x, -z'
  20  '-y, -x, z'
  21  'x, x-y, -z'
  22  '-x, -x+y, z'
  23  'x-y, -y, -z'
  24  '-x+y, y, z'
loop_
 _atom_site_type_symbol
 _atom_site_label
 _atom_site_symmetry_multiplicity
 _atom_site_fract_x
 _atom_site_fract_y
 _atom_site_fract_z
 _atom_site_occupancy
  Si  Si0  12  0.000000  0.325254  0.281161  1
  Si  Si1  3  0.000000  0.500000  0.000000  1
  Si  Si2  1  0.000000  0.000000  0.500000  1
