# generated using pymatgen
data_ID_0
_symmetry_space_group_name_H-M   P6cc
_cell_length_a   8.13120756
_cell_length_b   8.13120756
_cell_length_c   5.46822056
_cell_angle_alpha   90.00000000
_cell_angle_beta   90.00000000
_cell_angle_gamma   120.00000000
_symmetry_Int_Tables_number   184
_chemical_formula_structural   Si
_cell_volume   313.10265445
_cell_formula_units_Z   16
loop_
 _symmetry_equiv_pos_site_id
 _symmetry_equiv_pos_as_xyz
  1  'x, y, z'
  2  'x-y, x, z'
  3  '-y, x-y, z'
  4  '-x, -y, z'
  5  '-x+y, -x, z'
  6  'y, -x+y, z'
  7  'y, x, z+1/2'
  8  'x, x-y, z+1/2'
  9  'x-y, -y, z+1/2'
  10  '-y, -x, z+1/2'
  11  '-x, -x+y, z+1/2'
  12  '-x+y, y, z+1/2'
loop_
 _atom_site_type_symbol
 _atom_site_label
 _atom_site_symmetry_multiplicity
 _atom_site_fract_x
 _atom_site_fract_y
 _atom_site_fract_z
 _atom_site_occupancy
  Si  Si0  12  0.166443  0.333374  0.485417  1
  Si  Si1  4  0.333333  0.666667  0.980807  1
# generated using pymatgen
data_ID_1
_symmetry_space_group_name_H-M   I-4
_cell_length_a   7.66043304
_cell_length_b   7.66043304
_cell_length_c   9.60050863
_cell_angle_alpha   90.00000000
_cell_angle_beta   90.00000000
_cell_angle_gamma   90.00000000
_symmetry_Int_Tables_number   82
_chemical_formula_structural   Si
_cell_volume   563.37929793
_cell_formula_units_Z   32
loop_
 _symmetry_equiv_pos_site_id
 _symmetry_equiv_pos_as_xyz
  1  'x, y, z'
  2  'y, -x, -z'
  3  '-x, -y, z'
  4  '-y, x, -z'
  5  'x+1/2, y+1/2, z+1/2'
  6  'y+1/2, -x+1/2, -z+1/2'
  7  '-x+1/2, -y+1/2, z+1/2'
  8  '-y+1/2, x+1/2, -z+1/2'
loop_
 _atom_site_type_symbol
 _atom_site_label
 _atom_site_symmetry_multiplicity
 _atom_site_fract_x
 _atom_site_fract_y
 _atom_site_fract_z
 _atom_site_occupancy
  Si  Si0  8  0.066245  0.212324  0.999749  1
  Si  Si1  8  0.094286  0.209243  0.729530  1
  Si  Si2  8  0.094430  0.209447  0.270207  1
  Si  Si3  4  0.000000  0.500000  0.123737  1
  Si  Si4  4  0.000000  0.500000  0.623758  1
# generated using pymatgen
data_ID_2
_symmetry_space_group_name_H-M   P-3m1
_cell_length_a   7.67850643
_cell_length_b   7.67850643
_cell_length_c   5.05770331
_cell_angle_alpha   90.00000000
_cell_angle_beta   90.00000000
_cell_angle_gamma   120.00000000
_symmetry_Int_Tables_number   164
_chemical_formula_structural   Si
_cell_volume   258.24830826
_cell_formula_units_Z   16
loop_
 _symmetry_equiv_pos_site_id
 _symmetry_equiv_pos_as_xyz
  1  'x, y, z'
  2  '-x, -y, -z'
  3  '-y, x-y, z'
  4  'y, -x+y, -z'
  5  '-x+y, -x, z'
  6  'x-y, x, -z'
  7  'y, x, -z'
  8  '-y, -x, z'
  9  'x-y, -y, -z'
  10  '-x+y, y, z'
  11  '-x, -x+y, -z'
  12  'x, x-y, z'
loop_
 _atom_site_type_symbol
 _atom_site_label
 _atom_site_symmetry_multiplicity
 _atom_site_fract_x
 _atom_site_fract_y
 _atom_site_fract_z
 _atom_site_occupancy
  Si  Si0  6  0.000000  0.330846  0.500000  1
  Si  Si1  6  0.000000  0.332838  0.000000  1
  Si  Si2  2  0.000000  0.000000  0.256890  1
  Si  Si3  2  0.333333  0.666667  0.999832  1
# generated using pymatgen
data_ID_3
_symmetry_space_group_name_H-M   Cmm2
_cell_length_a   11.17721131
_cell_length_b   11.17855772
_cell_length_c   7.01194896
_cell_angle_alpha   90.00000000
_cell_angle_beta   90.00000000
_cell_angle_gamma   90.00000000
_symmetry_Int_Tables_number   35
_chemical_formula_structural   Si
_cell_volume   876.10867617
_cell_formula_units_Z   32
loop_
 _symmetry_equiv_pos_site_id
 _symmetry_equiv_pos_as_xyz
  1  'x, y, z'
  2  '-x, -y, z'
  3  '-x, y, z'
  4  'x, -y, z'
  5  'x+1/2, y+1/2, z'
  6  '-x+1/2, -y+1/2, z'
  7  '-x+1/2, y+1/2, z'
  8  'x+1/2, -y+1/2, z'
loop_
 _atom_site_type_symbol
 _atom_site_label
 _atom_site_symmetry_multiplicity
 _atom_site_fract_x
 _atom_site_fract_y
 _atom_site_fract_z
 _atom_site_occupancy
  Si  Si0  8  0.108553  0.272078  0.338829  1
  Si  Si1  8  0.227792  0.108605  0.838721  1
  Si  Si2  4  0.000000  0.096693  0.339481  1
  Si  Si3  4  0.096692  0.500000  0.838405  1
  Si  Si4  4  0.250000  0.250000  0.088749  1
  Si  Si5  4  0.250000  0.250000  0.588742  1
# generated using pymatgen
data_ID_4
_symmetry_space_group_name_H-M   I4/mcm
_cell_length_a   7.77189576
_cell_length_b   7.77189576
_cell_length_c   10.81826567
_cell_angle_alpha   90.00000000
_cell_angle_beta   90.00000000
_cell_angle_gamma   90.00000000
_symmetry_Int_Tables_number   140
_chemical_formula_structural   Si
_cell_volume   653.44881722
_cell_formula_units_Z   32
loop_
 _symmetry_equiv_pos_site_id
 _symmetry_equiv_pos_as_xyz
  1  'x, y, z'
  2  '-x, -y, -z'
  3  '-y, x, z'
  4  'y, -x, -z'
  5  '-x, -y, z'
  6  'x, y, -z'
  7  'y, -x, z'
  8  '-y, x, -z'
  9  'x, -y, -z+1/2'
  10  '-x, y, z+1/2'
  11  '-y, -x, -z+1/2'
  12  'y, x, z+1/2'
  13  '-x, y, -z+1/2'
  14  'x, -y, z+1/2'
  15  'y, x, -z+1/2'
  16  '-y, -x, z+1/2'
  17  'x+1/2, y+1/2, z+1/2'
  18  '-x+1/2, -y+1/2, -z+1/2'
  19  '-y+1/2, x+1/2, z+1/2'
  20  'y+1/2, -x+1/2, -z+1/2'
  21  '-x+1/2, -y+1/2, z+1/2'
  22  'x+1/2, y+1/2, -z+1/2'
  23  'y+1/2, -x+1/2, z+1/2'
  24  '-y+1/2, x+1/2, -z+1/2'
  25  'x+1/2, -y+1/2, -z'
  26  '-x+1/2, y+1/2, z'
  27  '-y+1/2, -x+1/2, -z'
  28  'y+1/2, x+1/2, z'
  29  '-x+1/2, y+1/2, -z'
  30  'x+1/2, -y+1/2, z'
  31  'y+1/2, x+1/2, -z'
  32  '-y+1/2, -x+1/2, z'
loop_
 _atom_site_type_symbol
 _atom_site_label
 _atom_site_symmetry_multiplicity
 _atom_site_fract_x
 _atom_site_fract_y
 _atom_site_fract_z
 _atom_site_occupancy
  Si  Si0  16  0.000149  0.249982  0.500000  1
  Si  Si1  8  0.000000  0.000000  0.143153  1
  Si  Si2  8  0.000000  0.500000  0.143142  1
