# generated using pymatgen
data_ID_5
_symmetry_space_group_name_H-M   P4mm
_cell_length_a   7.14698236
_cell_length_b   7.14698236
_cell_length_c   7.13776668
_cell_angle_alpha   90.00000000
_cell_angle_beta   90.00000000
_cell_angle_gamma   90.00000000
_symmetry_Int_Tables_number   99
_chemical_formula_structural   NaCl
_cell_volume   364.59253127
_cell_formula_units_Z   8
loop_
 _symmetry_equiv_pos_site_id
 _symmetry_equiv_pos_as_xyz
  1  'x, y, z'
  2  '-y, x, z'
  3  '-x, -y, z'
  4  'y, -x, z'
  5  '-x, y, z'
  6  'y, x, z'
  7  'x, -y, z'
  8  '-y, -x, z'
loop_
 _atom_site_type_symbol
 _atom_site_label
 _atom_site_symmetry_multiplicity
 _atom_site_fract_x
 _atom_site_fract_y
 _atom_site_fract_z
 _atom_site_occupancy
  Na  Na0  4  0.269226  0.269226  0.268458  1
  Na  Na1  4  0.269293  0.269293  0.782215  1
  Cl  Cl2  4  0.000000  0.298408  0.025653  1
  Cl  Cl3  2  0.000000  0.500000  0.527159  1
  Cl  Cl4  1  0.500000  0.500000  0.023224  1
  Cl  Cl5  1  0.500000  0.500000  0.522858  1
# generated using pymatgen
data_ID_3
_symmetry_space_group_name_H-M   I-43m
_cell_length_a   12.23541222
_cell_length_b   12.23541222
_cell_length_c   12.23541222
_cell_angle_alpha   90.00000000
_cell_angle_beta   90.00000000
_cell_angle_gamma   90.00000000
_symmetry_Int_Tables_number   217
_chemical_formula_structural   NaCl
_cell_volume   1831.70620409
_cell_formula_units_Z   16
loop_
 _symmetry_equiv_pos_site_id
 _symmetry_equiv_pos_as_xyz
  1  'x, y, z'
  2  'y, -x, -z'
  3  '-x, -y, z'
  4  '-y, x, -z'
  5  'x, -y, -z'
  6  'y, x, z'
  7  '-x, y, -z'
  8  '-y, -x, z'
  9  'z, x, y'
  10  '-z, y, -x'
  11  'z, -x, -y'
  12  '-z, -y, x'
  13  '-z, x, -y'
  14  'z, y, x'
  15  '-z, -x, y'
  16  'z, -y, -x'
  17  'y, z, x'
  18  '-x, -z, y'
  19  '-y, z, -x'
  20  'x, -z, -y'
  21  '-y, -z, x'
  22  'x, z, y'
  23  'y, -z, -x'
  24  '-x, z, -y'
  25  'x+1/2, y+1/2, z+1/2'
  26  'y+1/2, -x+1/2, -z+1/2'
  27  '-x+1/2, -y+1/2, z+1/2'
  28  '-y+1/2, x+1/2, -z+1/2'
  29  'x+1/2, -y+1/2, -z+1/2'
  30  'y+1/2, x+1/2, z+1/2'
  31  '-x+1/2, y+1/2, -z+1/2'
  32  '-y+1/2, -x+1/2, z+1/2'
  33  'z+1/2, x+1/2, y+1/2'
  34  '-z+1/2, y+1/2, -x+1/2'
  35  'z+1/2, -x+1/2, -y+1/2'
  36  '-z+1/2, -y+1/2, x+1/2'
  37  '-z+1/2, x+1/2, -y+1/2'
  38  'z+1/2, y+1/2, x+1/2'
  39  '-z+1/2, -x+1/2, y+1/2'
  40  'z+1/2, -y+1/2, -x+1/2'
  41  'y+1/2, z+1/2, x+1/2'
  42  '-x+1/2, -z+1/2, y+1/2'
  43  '-y+1/2, z+1/2, -x+1/2'
  44  'x+1/2, -z+1/2, -y+1/2'
  45  '-y+1/2, -z+1/2, x+1/2'
  46  'x+1/2, z+1/2, y+1/2'
  47  'y+1/2, -z+1/2, -x+1/2'
  48  '-x+1/2, z+1/2, -y+1/2'
loop_
 _atom_site_type_symbol
 _atom_site_label
 _atom_site_symmetry_multiplicity
 _atom_site_fract_x
 _atom_site_fract_y
 _atom_site_fract_z
 _atom_site_occupancy
  Na  Na0  8  0.119776  0.119776  0.119776  1
  Na  Na1  6  0.000000  0.000000  0.500000  1
  Na  Na2  2  0.000000  0.000000  0.000000  1
  Cl  Cl3  8  0.114487  0.114487  0.885513  1
  Cl  Cl4  8  0.234195  0.234195  0.234195  1
# generated using pymatgen
data_ID_4
_symmetry_space_group_name_H-M   P4_32_12
_cell_length_a   6.85007832
_cell_length_b   6.85007832
_cell_length_c   9.74713583
_cell_angle_alpha   90.00000000
_cell_angle_beta   90.00000000
_cell_angle_gamma   90.00000000
_symmetry_Int_Tables_number   96
_chemical_formula_structural   NaCl
_cell_volume   457.37044003
_cell_formula_units_Z   8
loop_
 _symmetry_equiv_pos_site_id
 _symmetry_equiv_pos_as_xyz
  1  'x, y, z'
  2  '-y+1/2, x+1/2, z+3/4'
  3  '-x, -y, z+1/2'
  4  'y+1/2, -x+1/2, z+1/4'
  5  'x+1/2, -y+1/2, -z+1/4'
  6  '-y, -x, -z+1/2'
  7  '-x+1/2, y+1/2, -z+3/4'
  8  'y, x, -z'
loop_
 _atom_site_type_symbol
 _atom_site_label
 _atom_site_symmetry_multiplicity
 _atom_site_fract_x
 _atom_site_fract_y
 _atom_site_fract_z
 _atom_site_occupancy
  Na  Na0  4  0.186625  0.813375  0.250000  1
  Na  Na1  4  0.191837  0.808163  0.750000  1
  Cl  Cl2  8  0.202424  0.207434  0.250819  1
# generated using pymatgen
data_ID_7
_symmetry_space_group_name_H-M   P31c
_cell_length_a   7.74426516
_cell_length_b   7.74426516
_cell_length_c   9.56271339
_cell_angle_alpha   90.00000000
_cell_angle_beta   90.00000000
_cell_angle_gamma   120.00000000
_symmetry_Int_Tables_number   159
_chemical_formula_structural   NaCl
_cell_volume   496.67488549
_cell_formula_units_Z   8
loop_
 _symmetry_equiv_pos_site_id
 _symmetry_equiv_pos_as_xyz
  1  'x, y, z'
  2  '-y, x-y, z'
  3  '-x+y, -x, z'
  4  'y, x, z+1/2'
  5  'x-y, -y, z+1/2'
  6  '-x, -x+y, z+1/2'
loop_
 _atom_site_type_symbol
 _atom_site_label
 _atom_site_symmetry_multiplicity
 _atom_site_fract_x
 _atom_site_fract_y
 _atom_site_fract_z
 _atom_site_occupancy
  Na  Na0  2  0.000000  0.000000  0.454496  1
  Na  Na1  2  0.333333  0.666667  0.115997  1
  Na  Na2  2  0.333333  0.666667  0.457264  1
  Na  Na3  2  0.333333  0.666667  0.797431  1
  Cl  Cl4  6  0.026049  0.610479  0.955293  1
  Cl  Cl5  2  0.000000  0.000000  0.204437  1
# generated using pymatgen
data_ID_6
_symmetry_space_group_name_H-M   P4_32_12
_cell_length_a   5.71705224
_cell_length_b   5.71705224
_cell_length_c   11.18854560
_cell_angle_alpha   90.00000000
_cell_angle_beta   90.00000000
_cell_angle_gamma   90.00000000
_symmetry_Int_Tables_number   96
_chemical_formula_structural   NaCl
_cell_volume   365.69410266
_cell_formula_units_Z   8
loop_
 _symmetry_equiv_pos_site_id
 _symmetry_equiv_pos_as_xyz
  1  'x, y, z'
  2  '-y+1/2, x+1/2, z+3/4'
  3  '-x, -y, z+1/2'
  4  'y+1/2, -x+1/2, z+1/4'
  5  'x+1/2, -y+1/2, -z+1/4'
  6  '-y, -x, -z+1/2'
  7  '-x+1/2, y+1/2, -z+3/4'
  8  'y, x, -z'
loop_
 _atom_site_type_symbol
 _atom_site_label
 _atom_site_symmetry_multiplicity
 _atom_site_fract_x
 _atom_site_fract_y
 _atom_site_fract_z
 _atom_site_occupancy
  Na  Na0  4  0.249534  0.750466  0.750000  1
  Na  Na1  4  0.249940  0.750060  0.250000  1
  Cl  Cl2  8  0.249269  0.750234  0.500095  1
# generated using pymatgen
data_ID_8
_symmetry_space_group_name_H-M   Pmna
_cell_length_a   9.11770823
_cell_length_b   9.62098786
_cell_length_c   9.51125007
_cell_angle_alpha   90.00000000
_cell_angle_beta   90.00000000
_cell_angle_gamma   90.00000000
_symmetry_Int_Tables_number   53
_chemical_formula_structural   NaCl
_cell_volume   834.33979249
_cell_formula_units_Z   8
loop_
 _symmetry_equiv_pos_site_id
 _symmetry_equiv_pos_as_xyz
  1  'x, y, z'
  2  '-x, -y, -z'
  3  '-x+1/2, -y, z+1/2'
  4  'x+1/2, y, -z+1/2'
  5  'x, -y, -z'
  6  '-x, y, z'
  7  '-x+1/2, y, -z+1/2'
  8  'x+1/2, -y, z+1/2'
loop_
 _atom_site_type_symbol
 _atom_site_label
 _atom_site_symmetry_multiplicity
 _atom_site_fract_x
 _atom_site_fract_y
 _atom_site_fract_z
 _atom_site_occupancy
  Na  Na0  4  0.189715  0.000000  0.000000  1
  Na  Na1  2  0.000000  0.000000  0.500000  1
  Na  Na2  2  0.000000  0.500000  0.000000  1
  Cl  Cl3  4  0.000000  0.266038  0.500066  1
  Cl  Cl4  4  0.250000  0.000028  0.750000  1
# generated using pymatgen
data_ID_9
_symmetry_space_group_name_H-M   P2_1/m
_cell_length_a   5.20828391
_cell_length_b   6.73315152
_cell_length_c   10.31860648
_cell_angle_alpha   90.00000000
_cell_angle_beta   91.25649787
_cell_angle_gamma   90.00000000
_symmetry_Int_Tables_number   11
_chemical_formula_structural   NaCl
_cell_volume   361.76758272
_cell_formula_units_Z   8
loop_
 _symmetry_equiv_pos_site_id
 _symmetry_equiv_pos_as_xyz
  1  'x, y, z'
  2  '-x, -y, -z'
  3  '-x, y+1/2, -z'
  4  'x, -y+1/2, z'
loop_
 _atom_site_type_symbol
 _atom_site_label
 _atom_site_symmetry_multiplicity
 _atom_site_fract_x
 _atom_site_fract_y
 _atom_site_fract_z
 _atom_site_occupancy
  Na  Na0  2  0.012080  0.750000  0.746192  1
  Na  Na1  2  0.012334  0.750000  0.245979  1
  Na  Na2  2  0.500000  0.000000  0.000000  1
  Na  Na3  2  0.500000  0.000000  0.500000  1
  Cl  Cl4  4  0.499971  0.500005  0.249869  1
  Cl  Cl5  2  0.000000  0.000000  0.000000  1
  Cl  Cl6  2  0.000000  0.000000  0.500000  1
# generated using pymatgen
data_ID_1
_symmetry_space_group_name_H-M   F222
_cell_length_a   10.12158813
_cell_length_b   10.81388460
_cell_length_c   13.59257511
_cell_angle_alpha   90.00000000
_cell_angle_beta   90.00000000
_cell_angle_gamma   90.00000000
_symmetry_Int_Tables_number   22
_chemical_formula_structural   NaCl
_cell_volume   1487.75744696
_cell_formula_units_Z   32
loop_
 _symmetry_equiv_pos_site_id
 _symmetry_equiv_pos_as_xyz
  1  'x, y, z'
  2  '-x, -y, z'
  3  'x, -y, -z'
  4  '-x, y, -z'
  5  'x+1/2, y, z+1/2'
  6  '-x+1/2, -y, z+1/2'
  7  'x+1/2, -y, -z+1/2'
  8  '-x+1/2, y, -z+1/2'
  9  'x+1/2, y+1/2, z'
  10  '-x+1/2, -y+1/2, z'
  11  'x+1/2, -y+1/2, -z'
  12  '-x+1/2, y+1/2, -z'
  13  'x, y+1/2, z+1/2'
  14  '-x, -y+1/2, z+1/2'
  15  'x, -y+1/2, -z+1/2'
  16  '-x, y+1/2, -z+1/2'
loop_
 _atom_site_type_symbol
 _atom_site_label
 _atom_site_symmetry_multiplicity
 _atom_site_fract_x
 _atom_site_fract_y
 _atom_site_fract_z
 _atom_site_occupancy
  Na  Na0  8  0.000000  0.000000  0.091645  1
  Na  Na1  8  0.000000  0.000000  0.283237  1
  Na  Na2  8  0.000000  0.122908  0.500000  1
  Na  Na3  8  0.250000  0.250000  0.003001  1
  Cl  Cl4  16  0.057711  0.283503  0.631395  1
  Cl  Cl5  16  0.210119  0.049328  0.385101  1
# generated using pymatgen
data_ID_2
_symmetry_space_group_name_H-M   P-62c
_cell_length_a   8.38758573
_cell_length_b   8.38758573
_cell_length_c   9.77543255
_cell_angle_alpha   90.00000000
_cell_angle_beta   90.00000000
_cell_angle_gamma   120.00000000
_symmetry_Int_Tables_number   190
_chemical_formula_structural   NaCl
_cell_volume   595.58062306
_cell_formula_units_Z   8
loop_
 _symmetry_equiv_pos_site_id
 _symmetry_equiv_pos_as_xyz
  1  'x, y, z'
  2  '-x+y, -x, -z+1/2'
  3  '-y, x-y, z'
  4  'x, y, -z+1/2'
  5  '-x+y, -x, z'
  6  '-y, x-y, -z+1/2'
  7  'y, x, z+1/2'
  8  '-x, -x+y, -z'
  9  'x-y, -y, z+1/2'
  10  'y, x, -z'
  11  '-x, -x+y, z+1/2'
  12  'x-y, -y, -z'
loop_
 _atom_site_type_symbol
 _atom_site_label
 _atom_site_symmetry_multiplicity
 _atom_site_fract_x
 _atom_site_fract_y
 _atom_site_fract_z
 _atom_site_occupancy
  Na  Na0  4  0.333333  0.666667  0.581910  1
  Na  Na1  2  0.000000  0.000000  0.250000  1
  Na  Na2  2  0.333333  0.666667  0.250000  1
  Cl  Cl3  6  0.000000  0.506047  0.000000  1
  Cl  Cl4  2  0.000000  0.000000  0.000000  1
# generated using pymatgen
data_ID_0
_symmetry_space_group_name_H-M   Pba2
_cell_length_a   5.36828812
_cell_length_b   10.60877867
_cell_length_c   12.78670883
_cell_angle_alpha   90.00000000
_cell_angle_beta   90.00000000
_cell_angle_gamma   90.00000000
_symmetry_Int_Tables_number   32
_chemical_formula_structural   NaCl
_cell_volume   728.21560472
_cell_formula_units_Z   8
loop_
 _symmetry_equiv_pos_site_id
 _symmetry_equiv_pos_as_xyz
  1  'x, y, z'
  2  '-x, -y, z'
  3  '-x+1/2, y+1/2, z'
  4  'x+1/2, -y+1/2, z'
loop_
 _atom_site_type_symbol
 _atom_site_label
 _atom_site_symmetry_multiplicity
 _atom_site_fract_x
 _atom_site_fract_y
 _atom_site_fract_z
 _atom_site_occupancy
  Na  Na0  2  0.000000  0.000000  0.185626  1
  Na  Na1  2  0.000000  0.500000  0.390533  1
  Na  Na2  2  0.000000  0.500000  0.755216  1
  Na  Na3  2  0.000000  0.500000  0.976748  1
  Cl  Cl4  4  0.206351  0.133873  0.866397  1
  Cl  Cl5  2  0.000000  0.000000  0.401867  1
  Cl  Cl6  2  0.000000  0.500000  0.184305  1
